18
Energy = -422.4809390948
C    -3.5973932    0.8575837   -0.4780100 
O    -2.1764943    0.9459696   -0.6282324 
C    -1.5072022   -0.0493746    0.1486069 
C    -0.0205296    0.0749503   -0.0643461 
O     0.2684251   -0.3375256   -1.4358047 
C     1.5664517   -0.2857673   -1.8050180 
O     2.4601419    0.0631632   -1.0484321 
C     1.7482064   -0.6789763   -3.2458758 
H    -4.0307373    1.6472586   -1.0947491 
H    -3.8892189    1.0062767    0.5714817 
H    -3.9656163   -0.1208332   -0.8174146 
H    -1.8552362   -1.0528905   -0.1386989 
H    -1.7201633    0.0964986    1.2189608 
H     0.5217205   -0.5801839    0.6223272 
H     0.3197600    1.1049809    0.0714720 
H     1.0606694   -1.4809020   -3.5231371 
H     2.7818936   -0.9819590   -3.4154699 
H     1.5268668    0.1911908   -3.8747539 
