14
Energy = -233.5629590158
C     0.7265759   -1.2153896   -0.2499896 
C    -0.7267029   -1.2153168    0.2499926 
C    -1.4230236    0.0865271   -0.0654727 
C    -0.7235243    1.2357316   -0.1118058 
C     0.7236561    1.2356734    0.1117687 
C     1.4230401    0.0863870    0.0655014 
H     0.7414085   -1.3606795   -1.3439888 
H     1.2723878   -2.0621076    0.1788397 
H    -0.7415558   -1.3606309    1.3439848 
H    -1.2726043   -2.0619609   -0.1788602 
H    -2.5036048    0.0869413   -0.1900845 
H    -1.2239373    2.1849754   -0.2897113 
H     1.2241554    2.1848677    0.2896863 
H     2.5036275    0.0866849    0.1901425 
