12
Energy = -306.6583661097
C     1.0073695    0.0231689   -0.0717511 
O     2.4613580    0.0343609   -0.1222305 
C     2.9977879    0.2992692   -1.3360245 
O     2.3227754    0.5174977   -2.3331911 
C     4.4756206    0.2848296   -1.2700471 
C     5.2198774    0.5238879   -2.3536835 
H     0.7628672   -0.2036341    0.9644935 
H     0.6203663   -0.7461153   -0.7431964 
H     0.6202050    1.0022726   -0.3611639 
H     4.9199196    0.0714864   -0.3023982 
H     4.7558868    0.7351126   -3.3134225 
H     6.3041063    0.5140037   -2.3065046 
