19
Energy = -825.0869755607
N     1.4243186   -1.2095471   -4.3498241 
H     2.4107117   -1.2945920   -4.0984390 
H     0.9243221   -1.1581604   -3.4594887 
C     1.2230772    0.0501273   -5.0848590 
H     0.1699653    0.1054690   -5.3841767 
H     1.8214352    0.0092488   -6.0006962 
C     1.5992745    1.3350083   -4.3006191 
H     2.6546493    1.2767573   -4.0077712 
H     1.4796928    2.1956495   -4.9719183 
C     0.7297947    1.4956306   -3.0937262 
H    -0.3145885    1.7547335   -3.2775161 
C     1.1260060    1.2653786   -1.8382673 
H     2.1599195    0.9949028   -1.6271684 
H    -0.7845468    1.6990829   -0.9529838 
C     0.2049820    1.3491312   -0.6457550 
H     0.6073070    2.0093444    0.1295586 
C     0.0449634   -0.0061658   -0.0016903 
O     0.4595814   -0.3960978    1.0434570 
Cl   -0.9038591   -1.1713343   -1.0771581 
