36
Energy = -713.4594775458
C    -0.4080913   -0.9492436   -4.4395079 
C    -0.8956932   -0.8378938   -3.1236764 
C     0.1581784    0.1506332   -5.0344472 
C    -0.8399596    0.3394490   -2.3908646 
C    -0.2692665    1.5213445   -2.9926747 
C     0.2414768    1.3867750   -4.3422901 
H     0.5522205    0.1009313   -6.0464810 
H    -0.4793477   -1.8959761   -4.9677340 
H    -1.3350739   -1.7135520   -2.6509932 
C    -1.3324569    0.2358974   -0.9651324 
C    -0.7105241    3.2215421   -1.0232549 
H    -1.9136732    1.1077597   -0.6642370 
C    -0.1880817    0.0234849    0.0540215 
H    -2.0063242   -0.6257916   -0.8987758 
H     0.2758704   -0.9527303   -0.1259362 
N    -0.6130770    0.0861817    1.4635549 
H     0.5928649    0.7768892   -0.1007142 
C    -2.7435273    3.9256871    0.3317493 
H    -1.3093727   -0.6415949    1.6334023 
H    -1.1038400    0.9714290    1.6162243 
O    -2.6797588    2.8028301    1.2438083 
H    -3.3765201    2.1775819    0.9855129 
C    -2.2064778    3.5881535   -1.0574144 
H    -3.7761275    4.2898829    0.2657996 
H    -2.1312724    4.7055141    0.7954526 
H    -2.7986137    2.7722660   -1.4915818 
H    -2.3495459    4.4597548   -1.7087558 
C    -0.1595488    2.8236506   -2.3790986 
C     0.4477022    3.8546462   -3.0827955 
C     0.9516751    3.7055196   -4.3883569 
C     0.8402140    2.4866307   -5.0093785 
H     1.4168567    4.5489223   -4.8908865 
H     1.2105462    2.3359251   -6.0205333 
H     0.5276943    4.8249924   -2.5978877 
H    -0.5400936    2.4612964   -0.2624062 
H    -0.1599943    4.1102185   -0.6938363 
