43
Energy = -1383.895285434
C     0.0943808   -0.5581751    1.4034177 
C    -0.0144802   -0.0365587   -0.0071559 
H     0.1421729   -1.6464908    1.4117841 
Cl   -1.3656445   -0.1128764    2.4041769 
H     0.9523253   -0.1349429    1.9251169 
H     0.8220995   -0.4648740   -0.5846406 
O     0.0745491    1.3837800    0.0064337 
H    -0.9551873   -0.3633059   -0.4742316 
C    -0.0344994    1.9343589   -1.3106712 
H     0.7254816    1.4869207   -1.9693873 
C     0.1611186    3.4297882   -1.2327992 
H    -1.0289481    1.7168690   -1.7294810 
H    -0.5104998    3.8624813   -0.4762963 
H    -0.0786103    3.8789872   -2.2090219 
O     1.5218723    3.6947408   -0.8834746 
C     1.7796558    5.0896312   -0.6856847 
H     1.0117393    5.5233195   -0.0274814 
H     1.7471782    5.6189057   -1.6516860 
C     3.1506700    5.2658146   -0.0557090 
H     3.8938974    4.6568762   -0.5912148 
O     3.1804862    4.9677465    1.3469562 
H     3.4369422    6.3190979   -0.1389610 
C     3.2644922    3.5642795    1.6451047 
H     2.4752854    3.0180893    1.1185467 
C     3.1527044    3.3899681    3.1482417 
H     4.2382991    3.1694768    1.3133354 
H     3.8985966    4.0109681    3.6538775 
H     3.3444573    2.3338125    3.3950037 
O     1.8891681    3.7960274    3.6895796 
C     0.8086487    2.9317130    3.3127849 
H     1.0794174    1.8875594    3.5337951 
H     0.5954228    3.0097960    2.2387599 
C    -0.4227123    3.3191685    4.0977023 
H    -0.6095832    4.4008316    3.9994679 
O    -0.2318794    2.9744186    5.4686028 
H    -1.2904512    2.7804683    3.6868336 
O    -2.1481573    3.1400462    8.5765774 
C    -1.0923634    2.8719056    7.7423864 
C    -1.3742610    3.2843021    6.2882631 
H    -0.8070330    1.7866326    7.7002652 
H    -0.1401051    3.3946038    8.0276215 
H    -2.2594525    2.7451038    5.9104076 
H    -1.5856889    4.3657494    6.2394819 
