38
Energy = -548.2736094238
C    -3.0093172   -2.2066901   -5.3272400 
C    -2.2621754   -3.1703665   -4.3831050 
C    -1.7253842   -2.4802810   -3.1552910 
C    -2.3127308   -2.4694683   -1.9340556 
C    -3.6625369   -3.1034977   -1.6743687 
C    -4.7732990   -2.0460483   -1.5264942 
C    -1.6494618   -1.7704067   -0.7978708 
C    -0.7360532   -0.8000842   -1.0435074 
C    -0.0000898    0.0001716   -0.0001887 
C     1.4318801   -0.5190888    0.2424147 
C    -0.3962094   -0.4751202   -2.4831875 
C    -0.4180538   -1.7379976   -3.3368075 
C    -1.9964075   -2.2263727    0.6038354 
C    -1.3625842   -3.5893493    0.9409803 
H    -3.3151836   -2.7200764   -6.2460212 
H    -2.3726220   -1.3596029   -5.6063890 
H    -3.9049714   -1.8086459   -4.8392379 
H    -1.4135851   -3.6046440   -4.9306739 
H    -2.9272681   -3.9984046   -4.1201733 
H    -3.6295820   -3.7138116   -0.7635773 
H    -3.9249635   -3.7809760   -2.4905624 
H    -4.5408909   -1.3438552   -0.7187646 
H    -5.7369782   -2.5177413   -1.3037958 
H    -4.8754556   -1.4685652   -2.4515631 
H    -0.5401109    0.0134703    0.9512895 
H     0.0621886    1.0420747   -0.3459396 
H     1.4073723   -1.5360641    0.6472917 
H     1.9646480    0.1240186    0.9520307 
H     2.0028439   -0.5415502   -0.6921986 
H     0.5838377    0.0128361   -2.5390848 
H    -1.1306675    0.2480698   -2.8771779 
H     0.4183830   -2.3959066   -3.0452726 
H    -0.2683005   -1.4912543   -4.3945630 
H    -3.0837689   -2.3023300    0.7230152 
H    -1.6586998   -1.4884110    1.3362447 
H    -1.6781952   -4.3583839    0.2272086 
H    -1.6510963   -3.9168864    1.9459828 
H    -0.2702715   -3.5236774    0.8984592 
