30
Energy = -542.6895304611
C     0.0572345    1.2672307    4.7215427 
C     0.2985995   -0.1379554    4.1347305 
C     0.6570670   -0.0726648    2.6701457 
C    -0.2146770   -0.2131682    1.6366834 
C     0.2241762   -0.1672063    0.1848061 
C    -0.0927904    1.1824367   -0.4827685 
C    -1.6659491   -0.3881913    1.8833622 
O    -2.2782432   -0.1556381    2.9212023 
O    -2.3135975   -0.8402969    0.7723789 
C    -3.7484084   -0.9948233    0.9142469 
C     2.1346210    0.1453318    2.4310661 
C     2.9123374   -1.1861593    2.3991696 
H    -0.1221090    1.2024551    5.8000431 
H    -0.8144064    1.7279002    4.2488617 
H     0.9248422    1.9159650    4.5596283 
H    -0.5863205   -0.7523377    4.3016595 
H     1.1428883   -0.5976279    4.6654860 
H    -0.2771336   -0.9676347   -0.3666670 
H     1.2964287   -0.3630254    0.1140049 
H    -1.1670891    1.3922105   -0.4480496 
H     0.2201729    1.1777874   -1.5324323 
H     0.4292292    1.9986890    0.0287379 
H    -4.0950820   -1.3251855   -0.0640053 
H    -4.2022060   -0.0393735    1.1873375 
H    -3.9720678   -1.7421224    1.6790005 
H     2.5264013    0.7605506    3.2505236 
H     2.3138970    0.6981031    1.5050735 
H     2.7517547   -1.7535176    3.3216572 
H     3.9856901   -0.9974771    2.2955201 
H     2.5865479   -1.8067508    1.5580115 
