9
Energy = -155.1379808211
C    -2.0161088   -0.9348618    0.9705857 
C    -0.4935880   -0.9103822    0.9684453 
O     0.0421750   -0.0021418   -0.0213153 
H    -2.3808240   -1.6582633    1.7092910 
H    -2.4002010   -1.2196868   -0.0145744 
H    -2.4197289    0.0502259    1.2329331 
H    -0.0900503   -1.8910199    0.7000166 
H    -0.1109978   -0.6434035    1.9631181 
H    -0.2669268    0.8903731    0.2070596 
